examples/feeders/22_SE001_1/012_cargasBT_1_1.dss
New Load.BT_103979_M1 bus1=UC103979.1.4 phases=1 conn=Wye model=2 kv=0.22 kw=0.371168 pf=0.92 daily=RU5_DU status=variable vmaxpu=1.5 vminpu=0.92
New Load.BT_103979_M2 bus1=UC103979.1.4 phases=1 conn=Wye model=3 kv=0.22 kw=0.371168 pf=0.92 daily=RU5_DU status=variable vmaxpu=1.5 vminpu=0.92
New Load.BT_122515_M1 bus1=UC122515.1.2.4 phases=1 conn=Delta model=2 kv=0.44 kw=0.7967995 pf=0.92 daily=RU6_DU status=variable vmaxpu=1.5 vminpu=0.92
New Load.BT_122515_M2 bus1=UC122515.1.2.4 phases=1 conn=Delta model=3 kv=0.44 kw=0.7967995 pf=0.92 daily=RU6_DU status=variable vmaxpu=1.5 vminpu=0.92
New Load.BT_129408_M1 bus1=UC129408.1.4 phases=1 conn=Wye model=2 kv=0.22 kw=0.2843315 pf=0.92 daily=RU3_DU status=variable vmaxpu=1.5 vminpu=0.92
New Load.BT_129408_M2 bus1=UC129408.1.4 phases=1 conn=Wye model=3 kv=0.22 kw=0.2843315 pf=0.92 daily=RU3_DU status=variable vmaxpu=1.5 vminpu=0.92
New Load.BT_135112_M1 bus1=UC135112.1.4 phases=1 conn=Wye model=2 kv=0.22 kw=0.285415 pf=0.92 daily=RE6_DU status=variable vmaxpu=1.5 vminpu=0.92
New Load.BT_135112_M2 bus1=UC135112.1.4 phases=1 conn=Wye model=3 kv=0.22 kw=0.285415 pf=0.92 daily=RE6_DU status=variable vmaxpu=1.5 vminpu=0.92
New Load.BT_IP6122_M1 bus1=ET1_1277.1.4 phases=1 conn=Wye model=2 kv=0.22 kw=0.0466955 pf=0.92 daily=IP1_DU status=variable vmaxpu=1.5 vminpu=0.92
New Load.BT_IP6122_M2 bus1=ET1_1277.1.4 phases=1 conn=Wye model=3 kv=0.22 kw=0.0466955 pf=0.92 daily=IP1_DU status=variable vmaxpu=1.5 vminpu=0.92
New Load.BT_IP6123_M1 bus1=BT244801.1.4 phases=1 conn=Wye model=2 kv=0.22 kw=0.0140085 pf=0.92 daily=IP1_DU status=variable vmaxpu=1.5 vminpu=0.92
New Load.BT_IP6123_M2 bus1=BT244801.1.4 phases=1 conn=Wye model=3 kv=0.22 kw=0.0140085 pf=0.92 daily=IP1_DU status=variable vmaxpu=1.5 vminpu=0.92
New Load.BT_IP6124_M1 bus1=BT244811.1.4 phases=1 conn=Wye model=2 kv=0.22 kw=0.0140085 pf=0.92 daily=IP1_DU status=variable vmaxpu=1.5 vminpu=0.92
New Load.BT_IP6124_M2 bus1=BT244811.1.4 phases=1 conn=Wye model=3 kv=0.22 kw=0.0140085 pf=0.92 daily=IP1_DU status=variable vmaxpu=1.5 vminpu=0.92
New Load.BT_2233461_M1 bus1=UC2233461.1.4 phases=1 conn=Wye model=2 kv=0.22 kw=0.2266855 pf=0.92 daily=RU6_DU status=variable vmaxpu=1.5 vminpu=0.92
New Load.BT_2233461_M2 bus1=UC2233461.1.4 phases=1 conn=Wye model=3 kv=0.22 kw=0.2266855 pf=0.92 daily=RU6_DU status=variable vmaxpu=1.5 vminpu=0.92
New Load.BT_2234580_M1 bus1=UC2234580.1.2.4 phases=1 conn=Delta model=2 kv=0.44 kw=0.587115 pf=0.92 daily=RU6_DU status=variable vmaxpu=1.5 vminpu=0.92
New Load.BT_2234580_M2 bus1=UC2234580.1.2.4 phases=1 conn=Delta model=3 kv=0.44 kw=0.587115 pf=0.92 daily=RU6_DU status=variable vmaxpu=1.5 vminpu=0.92
New Load.BT_1713676_M1 bus1=UC1713676.1.4 phases=1 conn=Wye model=2 kv=0.22 kw=0 pf=0.92 daily=RE4_DU status=variable vmaxpu=1.5 vminpu=0.92
New Load.BT_1713676_M2 bus1=UC1713676.1.4 phases=1 conn=Wye model=3 kv=0.22 kw=0 pf=0.92 daily=RE4_DU status=variable vmaxpu=1.5 vminpu=0.92
New Load.BT_2204025_M1 bus1=UC2204025.1.4 phases=1 conn=Wye model=2 kv=0.22 kw=0.2194945 pf=0.92 daily=RU5_DU status=variable vmaxpu=1.5 vminpu=0.92
New Load.BT_2204025_M2 bus1=UC2204025.1.4 phases=1 conn=Wye model=3 kv=0.22 kw=0.2194945 pf=0.92 daily=RU5_DU status=variable vmaxpu=1.5 vminpu=0.92
New Load.BT_2206506_M1 bus1=UC2206506.2.4 phases=1 conn=Wye model=2 kv=0.22 kw=0.2700525 pf=0.92 daily=RU5_DU status=variable vmaxpu=1.5 vminpu=0.92
New Load.BT_2206506_M2 bus1=UC2206506.2.4 phases=1 conn=Wye model=3 kv=0.22 kw=0.2700525 pf=0.92 daily=RU5_DU status=variable vmaxpu=1.5 vminpu=0.92
New Load.BT_2221098_M1 bus1=UC2221098.1.4 phases=1 conn=Wye model=2 kv=0.22 kw=0.374712 pf=0.92 daily=RU8_DU status=variable vmaxpu=1.5 vminpu=0.92
New Load.BT_2221098_M2 bus1=UC2221098.1.4 phases=1 conn=Wye model=3 kv=0.22 kw=0.374712 pf=0.92 daily=RU8_DU status=variable vmaxpu=1.5 vminpu=0.92
New Load.BT_2206487_M1 bus1=UC2206487.1.2.4 phases=1 conn=Delta model=2 kv=0.44 kw=0.477216 pf=0.92 daily=RU5_DU status=variable vmaxpu=1.5 vminpu=0.92
New Load.BT_2206487_M2 bus1=UC2206487.1.2.4 phases=1 conn=Delta model=3 kv=0.44 kw=0.477216 pf=0.92 daily=RU5_DU status=variable vmaxpu=1.5 vminpu=0.92
New Load.BT_2206504_M1 bus1=UC2206504.1.2.4 phases=1 conn=Delta model=2 kv=0.44 kw=0.2379915 pf=0.92 daily=RU5_DU status=variable vmaxpu=1.5 vminpu=0.92
New Load.BT_2206504_M2 bus1=UC2206504.1.2.4 phases=1 conn=Delta model=3 kv=0.44 kw=0.2379915 pf=0.92 daily=RU5_DU status=variable vmaxpu=1.5 vminpu=0.92
New Load.BT_2220773_M1 bus1=UC2220773.1.4 phases=1 conn=Wye model=2 kv=0.22 kw=0.2096295 pf=0.92 daily=RU5_DU status=variable vmaxpu=1.5 vminpu=0.92
New Load.BT_2220773_M2 bus1=UC2220773.1.4 phases=1 conn=Wye model=3 kv=0.22 kw=0.2096295 pf=0.92 daily=RU5_DU status=variable vmaxpu=1.5 vminpu=0.92
New Load.BT_2226792_M1 bus1=UC2226792.2.4 phases=1 conn=Wye model=2 kv=0.22 kw=0.182922 pf=0.92 daily=RU4_DU status=variable vmaxpu=1.5 vminpu=0.92
New Load.BT_2226792_M2 bus1=UC2226792.2.4 phases=1 conn=Wye model=3 kv=0.22 kw=0.182922 pf=0.92 daily=RU4_DU status=variable vmaxpu=1.5 vminpu=0.92
New Load.BT_104027_M1 bus1=UC104027.1.2.4 phases=1 conn=Delta model=2 kv=0.44 kw=0.2926065 pf=0.92 daily=RU1_DU status=variable vmaxpu=1.5 vminpu=0.92
New Load.BT_104027_M2 bus1=UC104027.1.2.4 phases=1 conn=Delta model=3 kv=0.44 kw=0.2926065 pf=0.92 daily=RU1_DU status=variable vmaxpu=1.5 vminpu=0.92
New Load.BT_104028_M1 bus1=UC104028.1.2.4 phases=1 conn=Delta model=2 kv=0.44 kw=1.2710185 pf=0.92 daily=RU2_DU status=variable vmaxpu=1.5 vminpu=0.92
New Load.BT_104028_M2 bus1=UC104028.1.2.4 phases=1 conn=Delta model=3 kv=0.44 kw=1.2710185 pf=0.92 daily=RU2_DU status=variable vmaxpu=1.5 vminpu=0.92
New Load.BT_104024_M1 bus1=UC104024.1.4 phases=1 conn=Wye model=2 kv=0.22 kw=0.325643 pf=0.92 daily=RU1_DU status=variable vmaxpu=1.5 vminpu=0.92
New Load.BT_104024_M2 bus1=UC104024.1.4 phases=1 conn=Wye model=3 kv=0.22 kw=0.325643 pf=0.92 daily=RU1_DU status=variable vmaxpu=1.5 vminpu=0.92
New Load.BT_128888_M1 bus1=UC128888.1.4 phases=1 conn=Wye model=2 kv=0.22 kw=0.031495 pf=0.92 daily=RU3_DU status=variable vmaxpu=1.5 vminpu=0.92
New Load.BT_128888_M2 bus1=UC128888.1.4 phases=1 conn=Wye model=3 kv=0.22 kw=0.031495 pf=0.92 daily=RU3_DU status=variable vmaxpu=1.5 vminpu=0.92
New Load.BT_104026_M1 bus1=UC104026.1.4 phases=1 conn=Wye model=2 kv=0.22 kw=0.242553 pf=0.92 daily=RU6_DU status=variable vmaxpu=1.5 vminpu=0.92
New Load.BT_104026_M2 bus1=UC104026.1.4 phases=1 conn=Wye model=3 kv=0.22 kw=0.242553 pf=0.92 daily=RU6_DU status=variable vmaxpu=1.5 vminpu=0.92
New Load.BT_104022_M1 bus1=UC104022.1.2.4 phases=1 conn=Delta model=2 kv=0.44 kw=0.245863 pf=0.92 daily=RU4_DU status=variable vmaxpu=1.5 vminpu=0.92
New Load.BT_104022_M2 bus1=UC104022.1.2.4 phases=1 conn=Delta model=3 kv=0.44 kw=0.245863 pf=0.92 daily=RU4_DU status=variable vmaxpu=1.5 vminpu=0.92
New Load.BT_2207539_M1 bus1=UC2207539.2.4 phases=1 conn=Wye model=2 kv=0.22 kw=0.256825 pf=0.92 daily=RU8_DU status=variable vmaxpu=1.5 vminpu=0.92
New Load.BT_2207539_M2 bus1=UC2207539.2.4 phases=1 conn=Wye model=3 kv=0.22 kw=0.256825 pf=0.92 daily=RU8_DU status=variable vmaxpu=1.5 vminpu=0.92
New Load.BT_1705074_M1 bus1=UC1705074.1.4 phases=1 conn=Wye model=2 kv=0.22 kw=0.4469515 pf=0.92 daily=RU2_DU status=variable vmaxpu=1.5 vminpu=0.92
New Load.BT_1705074_M2 bus1=UC1705074.1.4 phases=1 conn=Wye model=3 kv=0.22 kw=0.4469515 pf=0.92 daily=RU2_DU status=variable vmaxpu=1.5 vminpu=0.92
New Load.BT_1704703_M1 bus1=UC1704703.2.4 phases=1 conn=Wye model=2 kv=0.22 kw=0.184059 pf=0.92 daily=RU1_DU status=variable vmaxpu=1.5 vminpu=0.92
New Load.BT_1704703_M2 bus1=UC1704703.2.4 phases=1 conn=Wye model=3 kv=0.22 kw=0.184059 pf=0.92 daily=RU1_DU status=variable vmaxpu=1.5 vminpu=0.92
New Load.BT_1704704_M1 bus1=UC1704704.1.4 phases=1 conn=Wye model=2 kv=0.22 kw=0.0997345 pf=0.92 daily=RU3_DU status=variable vmaxpu=1.5 vminpu=0.92
New Load.BT_1704704_M2 bus1=UC1704704.1.4 phases=1 conn=Wye model=3 kv=0.22 kw=0.0997345 pf=0.92 daily=RU3_DU status=variable vmaxpu=1.5 vminpu=0.92
New Load.BT_1704705_M1 bus1=UC1704705.1.4 phases=1 conn=Wye model=2 kv=0.22 kw=0.16519 pf=0.92 daily=RU7_DU status=variable vmaxpu=1.5 vminpu=0.92
New Load.BT_1704705_M2 bus1=UC1704705.1.4 phases=1 conn=Wye model=3 kv=0.22 kw=0.16519 pf=0.92 daily=RU7_DU status=variable vmaxpu=1.5 vminpu=0.92
New Load.BT_1734099_M1 bus1=UC1734099.2.4 phases=1 conn=Wye model=2 kv=0.22 kw=0.3354165 pf=0.92 daily=RU8_DU status=variable vmaxpu=1.5 vminpu=0.92
New Load.BT_1734099_M2 bus1=UC1734099.2.4 phases=1 conn=Wye model=3 kv=0.22 kw=0.3354165 pf=0.92 daily=RU8_DU status=variable vmaxpu=1.5 vminpu=0.92
New Load.BT_1804700_M1 bus1=UC1804700.1.4 phases=1 conn=Wye model=2 kv=0.22 kw=0.197746 pf=0.92 daily=RU7_DU status=variable vmaxpu=1.5 vminpu=0.92
New Load.BT_1804700_M2 bus1=UC1804700.1.4 phases=1 conn=Wye model=3 kv=0.22 kw=0.197746 pf=0.92 daily=RU7_DU status=variable vmaxpu=1.5 vminpu=0.92
New Load.BT_1736378_M1 bus1=UC1736378.1.2.4 phases=1 conn=Delta model=2 kv=0.44 kw=0.0419575 pf=0.92 daily=PP6_DU status=variable vmaxpu=1.5 vminpu=0.92
New Load.BT_1736378_M2 bus1=UC1736378.1.2.4 phases=1 conn=Delta model=3 kv=0.44 kw=0.0419575 pf=0.92 daily=PP6_DU status=variable vmaxpu=1.5 vminpu=0.92
New Load.BT_1701670_M1 bus1=UC1701670.1.4 phases=1 conn=Wye model=2 kv=0.22 kw=0.136998 pf=0.92 daily=RE8_DU status=variable vmaxpu=1.5 vminpu=0.92
New Load.BT_1701670_M2 bus1=UC1701670.1.4 phases=1 conn=Wye model=3 kv=0.22 kw=0.136998 pf=0.92 daily=RE8_DU status=variable vmaxpu=1.5 vminpu=0.92
New Load.BT_1701671_M1 bus1=UC1701671.1.4 phases=1 conn=Wye model=2 kv=0.22 kw=0.2143925 pf=0.92 daily=RU4_DU status=variable vmaxpu=1.5 vminpu=0.92
New Load.BT_1701671_M2 bus1=UC1701671.1.4 phases=1 conn=Wye model=3 kv=0.22 kw=0.2143925 pf=0.92 daily=RU4_DU status=variable vmaxpu=1.5 vminpu=0.92
New Load.BT_1701674_M1 bus1=UC1701674.2.4 phases=1 conn=Wye model=2 kv=0.22 kw=0.1217825 pf=0.92 daily=RU7_DU status=variable vmaxpu=1.5 vminpu=0.92
New Load.BT_1701674_M2 bus1=UC1701674.2.4 phases=1 conn=Wye model=3 kv=0.22 kw=0.1217825 pf=0.92 daily=RU7_DU status=variable vmaxpu=1.5 vminpu=0.92
New Load.BT_1701667_M1 bus1=UC1701667.2.4 phases=1 conn=Wye model=2 kv=0.22 kw=0.1770215 pf=0.92 daily=RU4_DU status=variable vmaxpu=1.5 vminpu=0.92
New Load.BT_1701667_M2 bus1=UC1701667.2.4 phases=1 conn=Wye model=3 kv=0.22 kw=0.1770215 pf=0.92 daily=RU4_DU status=variable vmaxpu=1.5 vminpu=0.92
New Load.BT_1701659_M1 bus1=UC1701659.2.4 phases=1 conn=Wye model=2 kv=0.22 kw=0.2957045 pf=0.92 daily=RU3_DU status=variable vmaxpu=1.5 vminpu=0.92
New Load.BT_1701659_M2 bus1=UC1701659.2.4 phases=1 conn=Wye model=3 kv=0.22 kw=0.2957045 pf=0.92 daily=RU3_DU status=variable vmaxpu=1.5 vminpu=0.92
New Load.BT_1701660_M1 bus1=UC1701660.1.2.4 phases=1 conn=Delta model=2 kv=0.44 kw=0.3491255 pf=0.92 daily=RU4_DU status=variable vmaxpu=1.5 vminpu=0.92
New Load.BT_1701660_M2 bus1=UC1701660.1.2.4 phases=1 conn=Delta model=3 kv=0.44 kw=0.3491255 pf=0.92 daily=RU4_DU status=variable vmaxpu=1.5 vminpu=0.92
New Load.BT_1704709_M1 bus1=UC1704709.1.4 phases=1 conn=Wye model=2 kv=0.22 kw=0.572628 pf=0.92 daily=RU1_DU status=variable vmaxpu=1.5 vminpu=0.92
New Load.BT_1704709_M2 bus1=UC1704709.1.4 phases=1 conn=Wye model=3 kv=0.22 kw=0.572628 pf=0.92 daily=RU1_DU status=variable vmaxpu=1.5 vminpu=0.92
New Load.BT_1704710_M1 bus1=UC1704710.1.4 phases=1 conn=Wye model=2 kv=0.22 kw=0.160305 pf=0.92 daily=RU5_DU status=variable vmaxpu=1.5 vminpu=0.92
New Load.BT_1704710_M2 bus1=UC1704710.1.4 phases=1 conn=Wye model=3 kv=0.22 kw=0.160305 pf=0.92 daily=RU5_DU status=variable vmaxpu=1.5 vminpu=0.92
New Load.BT_1704675_M1 bus1=UC1704675.1.2.3.4 phases=3 conn=Delta model=2 kv=0.38 kw=0.953604 pf=0.92 daily=RU3_DU status=variable vmaxpu=1.5 vminpu=0.92
New Load.BT_1704675_M2 bus1=UC1704675.1.2.3.4 phases=3 conn=Delta model=3 kv=0.38 kw=0.953604 pf=0.92 daily=RU3_DU status=variable vmaxpu=1.5 vminpu=0.92
New Load.BT_1729596_M1 bus1=UC1729596.1.2.3.4 phases=3 conn=Delta model=2 kv=0.38 kw=0.72031 pf=0.92 daily=RU2_DU status=variable vmaxpu=1.5 vminpu=0.92
New Load.BT_1729596_M2 bus1=UC1729596.1.2.3.4 phases=3 conn=Delta model=3 kv=0.38 kw=0.72031 pf=0.92 daily=RU2_DU status=variable vmaxpu=1.5 vminpu=0.92
New Load.BT_1730462_M1 bus1=UC1730462.1.2.3.4 phases=3 conn=Delta model=2 kv=0.38 kw=0.0826185 pf=0.92 daily=RU5_DU status=variable vmaxpu=1.5 vminpu=0.92
New Load.BT_1730462_M2 bus1=UC1730462.1.2.3.4 phases=3 conn=Delta model=3 kv=0.38 kw=0.0826185 pf=0.92 daily=RU5_DU status=variable vmaxpu=1.5 vminpu=0.92
New Load.BT_1728814_M1 bus1=UC1728814.1.2.4 phases=1 conn=Delta model=2 kv=0.44 kw=0.0798215 pf=0.92 daily=CO6_DU status=variable vmaxpu=1.5 vminpu=0.92
New Load.BT_1728814_M2 bus1=UC1728814.1.2.4 phases=1 conn=Delta model=3 kv=0.44 kw=0.0798215 pf=0.92 daily=CO6_DU status=variable vmaxpu=1.5 vminpu=0.92
New Load.BT_1704708_M1 bus1=UC1704708.1.4 phases=1 conn=Wye model=2 kv=0.22 kw=0.217095 pf=0.92 daily=RU1_DU status=variable vmaxpu=1.5 vminpu=0.92
New Load.BT_1704708_M2 bus1=UC1704708.1.4 phases=1 conn=Wye model=3 kv=0.22 kw=0.217095 pf=0.92 daily=RU1_DU status=variable vmaxpu=1.5 vminpu=0.92
New Load.BT_1723901_M1 bus1=UC1723901.1.4 phases=1 conn=Wye model=2 kv=0.22 kw=1.024903 pf=0.92 daily=RU7_DU status=variable vmaxpu=1.5 vminpu=0.92
New Load.BT_1723901_M2 bus1=UC1723901.1.4 phases=1 conn=Wye model=3 kv=0.22 kw=1.024903 pf=0.92 daily=RU7_DU status=variable vmaxpu=1.5 vminpu=0.92
New Load.BT_IP987_M1 bus1=BT272672.1.4 phases=1 conn=Wye model=2 kv=0.22 kw=0.204713 pf=0.92 daily=IP1_DU status=variable vmaxpu=1.5 vminpu=0.92
New Load.BT_IP987_M2 bus1=BT272672.1.4 phases=1 conn=Wye model=3 kv=0.22 kw=0.204713 pf=0.92 daily=IP1_DU status=variable vmaxpu=1.5 vminpu=0.92
New Load.BT_IP5676_M1 bus1=ET17_1590.1.4 phases=1 conn=Wye model=2 kv=0.22 kw=0.204713 pf=0.92 daily=IP1_DU status=variable vmaxpu=1.5 vminpu=0.92
New Load.BT_IP5676_M2 bus1=ET17_1590.1.4 phases=1 conn=Wye model=3 kv=0.22 kw=0.204713 pf=0.92 daily=IP1_DU status=variable vmaxpu=1.5 vminpu=0.92
New Load.BT_1704747_M1 bus1=UC1704747.2.4 phases=1 conn=Wye model=2 kv=0.22 kw=0.209109 pf=0.92 daily=RU8_DU status=variable vmaxpu=1.5 vminpu=0.92
New Load.BT_1704747_M2 bus1=UC1704747.2.4 phases=1 conn=Wye model=3 kv=0.22 kw=0.209109 pf=0.92 daily=RU8_DU status=variable vmaxpu=1.5 vminpu=0.92
New Load.BT_1704748_M1 bus1=UC1704748.1.4 phases=1 conn=Wye model=2 kv=0.22 kw=0.191717 pf=0.92 daily=RU7_DU status=variable vmaxpu=1.5 vminpu=0.92
New Load.BT_1704748_M2 bus1=UC1704748.1.4 phases=1 conn=Wye model=3 kv=0.22 kw=0.191717 pf=0.92 daily=RU7_DU status=variable vmaxpu=1.5 vminpu=0.92
New Load.BT_1704749_M1 bus1=UC1704749.2.4 phases=1 conn=Wye model=2 kv=0.22 kw=0.4720575 pf=0.92 daily=RU4_DU status=variable vmaxpu=1.5 vminpu=0.92
New Load.BT_1704749_M2 bus1=UC1704749.2.4 phases=1 conn=Wye model=3 kv=0.22 kw=0.4720575 pf=0.92 daily=RU4_DU status=variable vmaxpu=1.5 vminpu=0.92
New Load.BT_1721805_M1 bus1=UC1721805.1.4 phases=1 conn=Wye model=2 kv=0.22 kw=0.213421 pf=0.92 daily=RU7_DU status=variable vmaxpu=1.5 vminpu=0.92
New Load.BT_1721805_M2 bus1=UC1721805.1.4 phases=1 conn=Wye model=3 kv=0.22 kw=0.213421 pf=0.92 daily=RU7_DU status=variable vmaxpu=1.5 vminpu=0.92
New Load.BT_1705104_M1 bus1=UC1705104.2.4 phases=1 conn=Wye model=2 kv=0.22 kw=0.7662025 pf=0.92 daily=RU2_DU status=variable vmaxpu=1.5 vminpu=0.92
New Load.BT_1705104_M2 bus1=UC1705104.2.4 phases=1 conn=Wye model=3 kv=0.22 kw=0.7662025 pf=0.92 daily=RU2_DU status=variable vmaxpu=1.5 vminpu=0.92
New Load.BT_1704944_M1 bus1=UC1704944.1.4 phases=1 conn=Wye model=2 kv=0.22 kw=0.1227285 pf=0.92 daily=RE4_DU status=variable vmaxpu=1.5 vminpu=0.92
New Load.BT_1704944_M2 bus1=UC1704944.1.4 phases=1 conn=Wye model=3 kv=0.22 kw=0.1227285 pf=0.92 daily=RE4_DU status=variable vmaxpu=1.5 vminpu=0.92
New Load.BT_1726291_M1 bus1=UC1726291.2.4 phases=1 conn=Wye model=2 kv=0.22 kw=0.587209 pf=0.92 daily=RU7_DU status=variable vmaxpu=1.5 vminpu=0.92
New Load.BT_1726291_M2 bus1=UC1726291.2.4 phases=1 conn=Wye model=3 kv=0.22 kw=0.587209 pf=0.92 daily=RU7_DU status=variable vmaxpu=1.5 vminpu=0.92
New Load.BT_1716295_M1 bus1=UC1716295.2.4 phases=1 conn=Wye model=2 kv=0.22 kw=0.1566055 pf=0.92 daily=RU5_DU status=variable vmaxpu=1.5 vminpu=0.92
New Load.BT_1716295_M2 bus1=UC1716295.2.4 phases=1 conn=Wye model=3 kv=0.22 kw=0.1566055 pf=0.92 daily=RU5_DU status=variable vmaxpu=1.5 vminpu=0.92
New Load.BT_1719270_M1 bus1=UC1719270.2.4 phases=1 conn=Wye model=2 kv=0.22 kw=0.316911 pf=0.92 daily=RU5_DU status=variable vmaxpu=1.5 vminpu=0.92
New Load.BT_1719270_M2 bus1=UC1719270.2.4 phases=1 conn=Wye model=3 kv=0.22 kw=0.316911 pf=0.92 daily=RU5_DU status=variable vmaxpu=1.5 vminpu=0.92
New Load.BT_IP989_M1 bus1=BT232752.1.4 phases=1 conn=Wye model=2 kv=0.22 kw=0.204713 pf=0.92 daily=IP1_DU status=variable vmaxpu=1.5 vminpu=0.92
New Load.BT_IP989_M2 bus1=BT232752.1.4 phases=1 conn=Wye model=3 kv=0.22 kw=0.204713 pf=0.92 daily=IP1_DU status=variable vmaxpu=1.5 vminpu=0.92
New Load.BT_1701655_M1 bus1=UC1701655.2.4 phases=1 conn=Wye model=2 kv=0.219393102 kw=0.3158265 pf=0.92 daily=RU3_DU status=variable vmaxpu=1.5 vminpu=0.92
New Load.BT_1701655_M2 bus1=UC1701655.2.4 phases=1 conn=Wye model=3 kv=0.219393102 kw=0.3158265 pf=0.92 daily=RU3_DU status=variable vmaxpu=1.5 vminpu=0.92
New Load.BT_1736114_M1 bus1=UC1736114.1.2.3.4 phases=3 conn=Delta model=2 kv=0.38 kw=0.5389175 pf=0.92 daily=RU3_DU status=variable vmaxpu=1.5 vminpu=0.92
New Load.BT_1736114_M2 bus1=UC1736114.1.2.3.4 phases=3 conn=Delta model=3 kv=0.38 kw=0.5389175 pf=0.92 daily=RU3_DU status=variable vmaxpu=1.5 vminpu=0.92
New Load.BT_1733960_M1 bus1=UC1733960.1.2.3.4 phases=3 conn=Delta model=2 kv=0.38 kw=1.0876475 pf=0.92 daily=RU8_DU status=variable vmaxpu=1.5 vminpu=0.92
New Load.BT_1733960_M2 bus1=UC1733960.1.2.3.4 phases=3 conn=Delta model=3 kv=0.38 kw=1.0876475 pf=0.92 daily=RU8_DU status=variable vmaxpu=1.5 vminpu=0.92
New Load.BT_1726790_M1 bus1=UC1726790.1.4 phases=1 conn=Wye model=2 kv=0.219393102 kw=0.3822765 pf=0.92 daily=RU1_DU status=variable vmaxpu=1.5 vminpu=0.92
New Load.BT_1726790_M2 bus1=UC1726790.1.4 phases=1 conn=Wye model=3 kv=0.219393102 kw=0.3822765 pf=0.92 daily=RU1_DU status=variable vmaxpu=1.5 vminpu=0.92
New Load.BT_1704682_M1 bus1=UC1704682.1.2.4 phases=1 conn=Delta model=2 kv=0.44 kw=0.5241805 pf=0.92 daily=RU4_DU status=variable vmaxpu=1.5 vminpu=0.92
New Load.BT_1704682_M2 bus1=UC1704682.1.2.4 phases=1 conn=Delta model=3 kv=0.44 kw=0.5241805 pf=0.92 daily=RU4_DU status=variable vmaxpu=1.5 vminpu=0.92
New Load.BT_1704678_M1 bus1=UC1704678.2.4 phases=1 conn=Wye model=2 kv=0.22 kw=0.4336555 pf=0.92 daily=RU8_DU status=variable vmaxpu=1.5 vminpu=0.92
New Load.BT_1704678_M2 bus1=UC1704678.2.4 phases=1 conn=Wye model=3 kv=0.22 kw=0.4336555 pf=0.92 daily=RU8_DU status=variable vmaxpu=1.5 vminpu=0.92
New Load.BT_1704671_M1 bus1=UC1704671.1.4 phases=1 conn=Wye model=2 kv=0.219393102 kw=0.538736 pf=0.92 daily=RU2_DU status=variable vmaxpu=1.5 vminpu=0.92
New Load.BT_1704671_M2 bus1=UC1704671.1.4 phases=1 conn=Wye model=3 kv=0.219393102 kw=0.538736 pf=0.92 daily=RU2_DU status=variable vmaxpu=1.5 vminpu=0.92
New Load.BT_1704672_M1 bus1=UC1704672.2.4 phases=1 conn=Wye model=2 kv=0.219393102 kw=0.5881965 pf=0.92 daily=RU5_DU status=variable vmaxpu=1.5 vminpu=0.92
New Load.BT_1704672_M2 bus1=UC1704672.2.4 phases=1 conn=Wye model=3 kv=0.219393102 kw=0.5881965 pf=0.92 daily=RU5_DU status=variable vmaxpu=1.5 vminpu=0.92
New Load.BT_1738841_M1 bus1=UC1738841.3.4 phases=1 conn=Wye model=2 kv=0.219393102 kw=0 pf=0.92 daily=RE4_DU status=variable vmaxpu=1.5 vminpu=0.92
New Load.BT_1738841_M2 bus1=UC1738841.3.4 phases=1 conn=Wye model=3 kv=0.219393102 kw=0 pf=0.92 daily=RE4_DU status=variable vmaxpu=1.5 vminpu=0.92
New Load.BT_1735002_M1 bus1=UC1735002.1.4 phases=1 conn=Wye model=2 kv=0.22 kw=0.17017 pf=0.92 daily=RU5_DU status=variable vmaxpu=1.5 vminpu=0.92
New Load.BT_1735002_M2 bus1=UC1735002.1.4 phases=1 conn=Wye model=3 kv=0.22 kw=0.17017 pf=0.92 daily=RU5_DU status=variable vmaxpu=1.5 vminpu=0.92
New Load.BT_1729290_M1 bus1=UC1729290.2.4 phases=1 conn=Wye model=2 kv=0.22 kw=0.133718 pf=0.92 daily=RU1_DU status=variable vmaxpu=1.5 vminpu=0.92
New Load.BT_1729290_M2 bus1=UC1729290.2.4 phases=1 conn=Wye model=3 kv=0.22 kw=0.133718 pf=0.92 daily=RU1_DU status=variable vmaxpu=1.5 vminpu=0.92
New Load.BT_1720073_M1 bus1=UC1720073.2.4 phases=1 conn=Wye model=2 kv=0.22 kw=0.409167 pf=0.92 daily=RU6_DU status=variable vmaxpu=1.5 vminpu=0.92
New Load.BT_1720073_M2 bus1=UC1720073.2.4 phases=1 conn=Wye model=3 kv=0.22 kw=0.409167 pf=0.92 daily=RU6_DU status=variable vmaxpu=1.5 vminpu=0.92
New Load.BT_1720185_M1 bus1=UC1720185.2.4 phases=1 conn=Wye model=2 kv=0.22 kw=0.0735515 pf=0.92 daily=RU7_DU status=variable vmaxpu=1.5 vminpu=0.92
New Load.BT_1720185_M2 bus1=UC1720185.2.4 phases=1 conn=Wye model=3 kv=0.22 kw=0.0735515 pf=0.92 daily=RU7_DU status=variable vmaxpu=1.5 vminpu=0.92
New Load.BT_1717347_M1 bus1=UC1717347.1.4 phases=1 conn=Wye model=2 kv=0.22 kw=0.221861 pf=0.92 daily=RU7_DU status=variable vmaxpu=1.5 vminpu=0.92
New Load.BT_1717347_M2 bus1=UC1717347.1.4 phases=1 conn=Wye model=3 kv=0.22 kw=0.221861 pf=0.92 daily=RU7_DU status=variable vmaxpu=1.5 vminpu=0.92
New Load.BT_1719268_M1 bus1=UC1719268.1.4 phases=1 conn=Wye model=2 kv=0.22 kw=0.2020915 pf=0.92 daily=RU8_DU status=variable vmaxpu=1.5 vminpu=0.92
New Load.BT_1719268_M2 bus1=UC1719268.1.4 phases=1 conn=Wye model=3 kv=0.22 kw=0.2020915 pf=0.92 daily=RU8_DU status=variable vmaxpu=1.5 vminpu=0.92
New Load.BT_1719285_M1 bus1=UC1719285.1.4 phases=1 conn=Wye model=2 kv=0.22 kw=0.238742 pf=0.92 daily=RU7_DU status=variable vmaxpu=1.5 vminpu=0.92
New Load.BT_1719285_M2 bus1=UC1719285.1.4 phases=1 conn=Wye model=3 kv=0.22 kw=0.238742 pf=0.92 daily=RU7_DU status=variable vmaxpu=1.5 vminpu=0.92
New Load.BT_1703298_M1 bus1=UC1703298.2.4 phases=1 conn=Wye model=2 kv=0.22 kw=0.3267755 pf=0.92 daily=RU5_DU status=variable vmaxpu=1.5 vminpu=0.92
New Load.BT_1703298_M2 bus1=UC1703298.2.4 phases=1 conn=Wye model=3 kv=0.22 kw=0.3267755 pf=0.92 daily=RU5_DU status=variable vmaxpu=1.5 vminpu=0.92
New Load.BT_1728728_M1 bus1=UC1728728.1.4 phases=1 conn=Wye model=2 kv=0.22 kw=0.1946505 pf=0.92 daily=RE6_DU status=variable vmaxpu=1.5 vminpu=0.92
New Load.BT_1728728_M2 bus1=UC1728728.1.4 phases=1 conn=Wye model=3 kv=0.22 kw=0.1946505 pf=0.92 daily=RE6_DU status=variable vmaxpu=1.5 vminpu=0.92
New Load.BT_1729013_M1 bus1=UC1729013.2.4 phases=1 conn=Wye model=2 kv=0.22 kw=0.16519 pf=0.92 daily=RU7_DU status=variable vmaxpu=1.5 vminpu=0.92
New Load.BT_1729013_M2 bus1=UC1729013.2.4 phases=1 conn=Wye model=3 kv=0.22 kw=0.16519 pf=0.92 daily=RU7_DU status=variable vmaxpu=1.5 vminpu=0.92
New Load.BT_1731217_M1 bus1=UC1731217.2.4 phases=1 conn=Wye model=2 kv=0.22 kw=0.030682 pf=0.92 daily=RE4_DU status=variable vmaxpu=1.5 vminpu=0.92
New Load.BT_1731217_M2 bus1=UC1731217.2.4 phases=1 conn=Wye model=3 kv=0.22 kw=0.030682 pf=0.92 daily=RE4_DU status=variable vmaxpu=1.5 vminpu=0.92
New Load.BT_1732374_M1 bus1=UC1732374.2.4 phases=1 conn=Wye model=2 kv=0.22 kw=0.1469235 pf=0.92 daily=RE5_DU status=variable vmaxpu=1.5 vminpu=0.92
New Load.BT_1732374_M2 bus1=UC1732374.2.4 phases=1 conn=Wye model=3 kv=0.22 kw=0.1469235 pf=0.92 daily=RE5_DU status=variable vmaxpu=1.5 vminpu=0.92
New Load.BT_1735123_M1 bus1=UC1735123.1.4 phases=1 conn=Wye model=2 kv=0.22 kw=0.0822645 pf=0.92 daily=RE3_DU status=variable vmaxpu=1.5 vminpu=0.92
New Load.BT_1735123_M2 bus1=UC1735123.1.4 phases=1 conn=Wye model=3 kv=0.22 kw=0.0822645 pf=0.92 daily=RE3_DU status=variable vmaxpu=1.5 vminpu=0.92
New Load.BT_1736116_M1 bus1=UC1736116.2.4 phases=1 conn=Wye model=2 kv=0.22 kw=0.042102 pf=0.92 daily=RU8_DU status=variable vmaxpu=1.5 vminpu=0.92
New Load.BT_1736116_M2 bus1=UC1736116.2.4 phases=1 conn=Wye model=3 kv=0.22 kw=0.042102 pf=0.92 daily=RU8_DU status=variable vmaxpu=1.5 vminpu=0.92
New Load.BT_1736582_M1 bus1=UC1736582.1.4 phases=1 conn=Wye model=2 kv=0.22 kw=0.0802305 pf=0.92 daily=RU1_DU status=variable vmaxpu=1.5 vminpu=0.92
New Load.BT_1736582_M2 bus1=UC1736582.1.4 phases=1 conn=Wye model=3 kv=0.22 kw=0.0802305 pf=0.92 daily=RU1_DU status=variable vmaxpu=1.5 vminpu=0.92
New Load.BT_1734626_M1 bus1=UC1734626.1.4 phases=1 conn=Wye model=2 kv=0.22 kw=0.03588 pf=0.92 daily=RE8_DU status=variable vmaxpu=1.5 vminpu=0.92
New Load.BT_1734626_M2 bus1=UC1734626.1.4 phases=1 conn=Wye model=3 kv=0.22 kw=0.03588 pf=0.92 daily=RE8_DU status=variable vmaxpu=1.5 vminpu=0.92
New Load.BT_1735225_M1 bus1=UC1735225.2.4 phases=1 conn=Wye model=2 kv=0.22 kw=0.187221 pf=0.92 daily=RU3_DU status=variable vmaxpu=1.5 vminpu=0.92
New Load.BT_1735225_M2 bus1=UC1735225.2.4 phases=1 conn=Wye model=3 kv=0.22 kw=0.187221 pf=0.92 daily=RU3_DU status=variable vmaxpu=1.5 vminpu=0.92
New Load.BT_1738045_M1 bus1=UC1738045.1.4 phases=1 conn=Wye model=2 kv=0.22 kw=0.034967 pf=0.92 daily=RU7_DU status=variable vmaxpu=1.5 vminpu=0.92
New Load.BT_1738045_M2 bus1=UC1738045.1.4 phases=1 conn=Wye model=3 kv=0.22 kw=0.034967 pf=0.92 daily=RU7_DU status=variable vmaxpu=1.5 vminpu=0.92
New Load.BT_1736710_M1 bus1=UC1736710.2.4 phases=1 conn=Wye model=2 kv=0.22 kw=0.1091265 pf=0.92 daily=RE3_DU status=variable vmaxpu=1.5 vminpu=0.92
New Load.BT_1736710_M2 bus1=UC1736710.2.4 phases=1 conn=Wye model=3 kv=0.22 kw=0.1091265 pf=0.92 daily=RE3_DU status=variable vmaxpu=1.5 vminpu=0.92
New Load.BT_1704660_M1 bus1=UC1704660.1.4 phases=1 conn=Wye model=2 kv=0.22 kw=0.221341 pf=0.92 daily=RU3_DU status=variable vmaxpu=1.5 vminpu=0.92
New Load.BT_1704660_M2 bus1=UC1704660.1.4 phases=1 conn=Wye model=3 kv=0.22 kw=0.221341 pf=0.92 daily=RU3_DU status=variable vmaxpu=1.5 vminpu=0.92
New Load.BT_1716243_M1 bus1=UC1716243.2.4 phases=1 conn=Wye model=2 kv=0.22 kw=0.78017 pf=0.92 daily=RU2_DU status=variable vmaxpu=1.5 vminpu=0.92
New Load.BT_1716243_M2 bus1=UC1716243.2.4 phases=1 conn=Wye model=3 kv=0.22 kw=0.78017 pf=0.92 daily=RU2_DU status=variable vmaxpu=1.5 vminpu=0.92
New Load.BT_1722417_M1 bus1=UC1722417.2.4 phases=1 conn=Wye model=2 kv=0.22 kw=0.2973025 pf=0.92 daily=RU2_DU status=variable vmaxpu=1.5 vminpu=0.92
New Load.BT_1722417_M2 bus1=UC1722417.2.4 phases=1 conn=Wye model=3 kv=0.22 kw=0.2973025 pf=0.92 daily=RU2_DU status=variable vmaxpu=1.5 vminpu=0.92
New Load.BT_1738032_M1 bus1=UC1738032.1.4 phases=1 conn=Wye model=2 kv=0.22 kw=0.107044 pf=0.92 daily=RE2_DU status=variable vmaxpu=1.5 vminpu=0.92
New Load.BT_1738032_M2 bus1=UC1738032.1.4 phases=1 conn=Wye model=3 kv=0.22 kw=0.107044 pf=0.92 daily=RE2_DU status=variable vmaxpu=1.5 vminpu=0.92
New Load.BT_1734628_M1 bus1=UC1734628.1.4 phases=1 conn=Wye model=2 kv=0.22 kw=0.2047185 pf=0.92 daily=RU3_DU status=variable vmaxpu=1.5 vminpu=0.92
New Load.BT_1734628_M2 bus1=UC1734628.1.4 phases=1 conn=Wye model=3 kv=0.22 kw=0.2047185 pf=0.92 daily=RU3_DU status=variable vmaxpu=1.5 vminpu=0.92
New Load.BT_1727538_M1 bus1=UC1727538.1.4 phases=1 conn=Wye model=2 kv=0.22 kw=0.4261685 pf=0.92 daily=RU6_DU status=variable vmaxpu=1.5 vminpu=0.92
New Load.BT_1727538_M2 bus1=UC1727538.1.4 phases=1 conn=Wye model=3 kv=0.22 kw=0.4261685 pf=0.92 daily=RU6_DU status=variable vmaxpu=1.5 vminpu=0.92
New Load.BT_1738297_M1 bus1=UC1738297.1.4 phases=1 conn=Wye model=2 kv=0.22 kw=0 pf=0.92 daily=RE5_DU status=variable vmaxpu=1.5 vminpu=0.92
New Load.BT_1738297_M2 bus1=UC1738297.1.4 phases=1 conn=Wye model=3 kv=0.22 kw=0 pf=0.92 daily=RE5_DU status=variable vmaxpu=1.5 vminpu=0.92
New Load.BT_1723598_M1 bus1=UC1723598.2.4 phases=1 conn=Wye model=2 kv=0.22 kw=0.2568285 pf=0.92 daily=RU7_DU status=variable vmaxpu=1.5 vminpu=0.92
New Load.BT_1723598_M2 bus1=UC1723598.2.4 phases=1 conn=Wye model=3 kv=0.22 kw=0.2568285 pf=0.92 daily=RU7_DU status=variable vmaxpu=1.5 vminpu=0.92
New Load.BT_1701646_M1 bus1=UC1701646.2.4 phases=1 conn=Wye model=2 kv=0.22 kw=0.247001 pf=0.92 daily=RU8_DU status=variable vmaxpu=1.5 vminpu=0.92
New Load.BT_1701646_M2 bus1=UC1701646.2.4 phases=1 conn=Wye model=3 kv=0.22 kw=0.247001 pf=0.92 daily=RU8_DU status=variable vmaxpu=1.5 vminpu=0.92
New Load.BT_1704666_M1 bus1=UC1704666.1.4 phases=1 conn=Wye model=2 kv=0.219393102 kw=0.0168805 pf=0.92 daily=RU7_DU status=variable vmaxpu=1.5 vminpu=0.92
New Load.BT_1704666_M2 bus1=UC1704666.1.4 phases=1 conn=Wye model=3 kv=0.219393102 kw=0.0168805 pf=0.92 daily=RU7_DU status=variable vmaxpu=1.5 vminpu=0.92
New Load.BT_1704674_M1 bus1=UC1704674.1.2.3.4 phases=3 conn=Delta model=2 kv=0.38 kw=0.1440235 pf=0.92 daily=CO5_DU status=variable vmaxpu=1.5 vminpu=0.92
New Load.BT_1704674_M2 bus1=UC1704674.1.2.3.4 phases=3 conn=Delta model=3 kv=0.38 kw=0.1440235 pf=0.92 daily=CO5_DU status=variable vmaxpu=1.5 vminpu=0.92
New Load.BT_1723253_M1 bus1=UC1723253.1.2.3.4 phases=3 conn=Delta model=2 kv=0.38 kw=0.012331 pf=0.92 daily=RU5_DU status=variable vmaxpu=1.5 vminpu=0.92
New Load.BT_1723253_M2 bus1=UC1723253.1.2.3.4 phases=3 conn=Delta model=3 kv=0.38 kw=0.012331 pf=0.92 daily=RU5_DU status=variable vmaxpu=1.5 vminpu=0.92
New Load.BT_1722235_M1 bus1=UC1722235.1.4 phases=1 conn=Wye model=2 kv=0.219393102 kw=0.139342 pf=0.92 daily=RU5_DU status=variable vmaxpu=1.5 vminpu=0.92
New Load.BT_1722235_M2 bus1=UC1722235.1.4 phases=1 conn=Wye model=3 kv=0.219393102 kw=0.139342 pf=0.92 daily=RU5_DU status=variable vmaxpu=1.5 vminpu=0.92
New Load.BT_1705058_M1 bus1=UC1705058.1.2.3.4 phases=3 conn=Delta model=2 kv=0.38 kw=0.6571435 pf=0.92 daily=RU7_DU status=variable vmaxpu=1.5 vminpu=0.92
New Load.BT_1705058_M2 bus1=UC1705058.1.2.3.4 phases=3 conn=Delta model=3 kv=0.38 kw=0.6571435 pf=0.92 daily=RU7_DU status=variable vmaxpu=1.5 vminpu=0.92
New Load.BT_1726287_M1 bus1=UC1726287.1.2.3.4 phases=3 conn=Delta model=2 kv=0.38 kw=0.389447 pf=0.92 daily=RU4_DU status=variable vmaxpu=1.5 vminpu=0.92
New Load.BT_1726287_M2 bus1=UC1726287.1.2.3.4 phases=3 conn=Delta model=3 kv=0.38 kw=0.389447 pf=0.92 daily=RU4_DU status=variable vmaxpu=1.5 vminpu=0.92
...
